/*--------------------------------*- C++ -*----------------------------------*\
|                                                                             |
|                Generated by the CfdOF workbench for FreeCAD                 |
|                      https://github.com/jaheyns/CfdOF                       |
|                                                                             |
\*---------------------------------------------------------------------------*/
FoamFile
{
    version     2.0;
    format      ascii;
    class       volScalarField;
    object      k;
}
// * * * * * * * * * * * * * * * * * * * * * * * * * * * * * * * * * * * * * //

dimensions      [0 2 -2 0 0 0 0];

internalField   uniform 0.1;

boundaryField
{
    inlet
    {
        type            fixedValue;
        value           uniform 0.1;
    }

    outlet
    {
        type            zeroGradient;
    }

    sideWalls
    {
        type            slip;
    }

    rotor
    {
        type            kqRWallFunction;
        value           uniform 0.1;
    }
}

// ************************************************************************* //
